*Heading
** Job name: test Model name: Model-1
** Generated by: Abaqus/CAE 2024
*Preprint, echo=NO, model=NO, history=NO, contact=NO
**
** PARTS
**
*Part, name=Part-1
*Node
      1,  0.100000001,  0.100000001,  0.100000001
      2,  0.100000001,           0.,  0.100000001
      3,  0.100000001,  0.100000001,           0.
      4,  0.100000001,           0.,           0.
      5,           0.,  0.100000001,  0.100000001
      6,           0.,           0.,  0.100000001
      7,           0.,  0.100000001,           0.
      8,           0.,           0.,           0.
*Element, type=C3D8R
1, 5, 6, 8, 7, 1, 2, 4, 3
*Nset, nset=Set-1, generate
 1,  8,  1
*Elset, elset=Set-1
 1,
** Section: Section-1
*Solid Section, elset=Set-1, material=MAT1
,
*End Part
**
**
** ASSEMBLY
**
*Assembly, name=Assembly
**
*Instance, name=Part-1-1, part=Part-1
*End Instance
**
*Nset, nset=Set-1, instance=Part-1-1
 1, 2, 5, 6
*Elset, elset=Set-1, instance=Part-1-1
 1,
*Elset, elset=_Surf-1_S5, internal, instance=Part-1-1
 1,
*Surface, type=ELEMENT, name=Surf-1
_Surf-1_S5, S5
*End Assembly
**
** MATERIALS
**
*Material, name=MAT1
*User Material, constants=2
210000., 0.30
*Density
1000.
** ----------------------------------------------------------------
**
** STEP: Step-1
**
*Step, name=Step-1, nlgeom=NO
*Dynamic, Explicit
, 0.001
*Bulk Viscosity
0.06, 1.2
**
** BOUNDARY CONDITIONS
**
** Name: BC-1 Type: Displacement/Rotation
*Boundary
Set-1, 1, 1
Set-1, 2, 2
Set-1, 3, 3
Set-1, 4, 4
Set-1, 5, 5
Set-1, 6, 6
**
** LOADS
**
** Name: Load-1   Type: Pressure
*Dsload
Surf-1, P, 1e+06
**
** OUTPUT REQUESTS
**
*Restart, write, number interval=1, time marks=NO
**
** FIELD OUTPUT: F-Output-1
**
*Output, field, variable=PRESELECT
**
** HISTORY OUTPUT: H-Output-1
**
*Output, history, variable=PRESELECT
*End Step
